Version 4
SHEET 1 976 680
WIRE 336 -80 -304 -80
WIRE 736 -80 336 -80
WIRE 496 -32 256 -32
WIRE 608 -32 496 -32
WIRE 496 -16 496 -32
WIRE -464 0 -544 0
WIRE -304 0 -304 -80
WIRE -544 16 -544 0
WIRE -544 16 -640 16
WIRE 736 32 736 0
WIRE 336 64 336 -80
WIRE -464 80 -576 80
WIRE -240 80 -304 80
WIRE -80 80 -160 80
WIRE 256 80 256 -32
WIRE 304 80 256 80
WIRE -576 96 -576 80
WIRE -576 96 -640 96
WIRE 496 96 496 48
WIRE 496 96 368 96
WIRE 608 96 608 48
WIRE 608 96 496 96
WIRE 672 96 608 96
WIRE 784 96 752 96
WIRE 912 96 784 96
WIRE -80 112 -80 80
WIRE -32 112 -80 112
WIRE 112 112 -32 112
WIRE 304 112 112 112
WIRE -640 128 -640 96
WIRE 784 160 784 96
WIRE -32 176 -32 112
WIRE 112 176 112 112
WIRE 256 176 256 80
WIRE -32 256 -32 240
WIRE 112 256 -32 256
WIRE 256 256 112 256
WIRE 336 256 336 128
WIRE 336 256 256 256
WIRE 784 256 784 224
WIRE 784 256 336 256
WIRE 336 288 336 256
FLAG 336 288 0
FLAG 912 96 ADC
FLAG 736 32 0
FLAG -640 128 0
SYMBOL cap -48 176 R0
SYMATTR InstName C1
SYMATTR Value 100n
SYMBOL res 240 160 R0
SYMATTR InstName R2
SYMATTR Value 1k
SYMBOL OpAmps\\LTC1050 336 32 R0
SYMATTR InstName U1
SYMBOL res 96 160 R0
SYMATTR InstName R1
SYMATTR Value 100k
SYMBOL cap 480 -16 R0
SYMATTR InstName C2
SYMATTR Value 1µ
SYMBOL res 592 -48 R0
SYMATTR InstName R3
SYMATTR Value 100k
SYMBOL res 768 80 R90
WINDOW 0 0 56 VBottom 2
WINDOW 3 32 56 VTop 2
SYMATTR InstName R4
SYMATTR Value 1k
SYMBOL cap 768 160 R0
SYMATTR InstName C3
SYMATTR Value 100n
SYMBOL voltage 736 -96 R0
WINDOW 123 24 44 Left 2
WINDOW 39 0 0 Left 0
SYMATTR InstName V1
SYMATTR Value 5
SYMBOL res -144 64 R90
WINDOW 0 0 56 VBottom 2
WINDOW 3 32 56 VTop 2
SYMATTR InstName R5
SYMATTR Value 10k
SYMBOL GP_Capteur_Graphite -400 16 R0
SYMATTR InstName X1
SYMBOL voltage -640 0 R0
WINDOW 123 24 124 Left 2
WINDOW 39 0 0 Left 0
SYMATTR InstName V2
SYMATTR Value SINE(0 1 0.2 0.1 10)
SYMATTR Value2 AC 1
TEXT 512 -152 Left 2 !;tran 0 10u 0
TEXT 536 -112 Left 2 !.ac oct 200 0.1 0.1G
TEXT -696 -72 Left 2 !.param G0 10n
TEXT -680 -32 Left 2 !.param R0 1k
TEXT -896 -48 Left 2 !.param C0 200p
